<?xml version="1.0" encoding="UTF-8"?>

<!-- generated on 2026-02-17T16:20:57.952236+05:30 by Eclipse SUMO netconvert 1.26.0
<netconvertConfiguration xmlns:xsi="http://www.w3.org/2001/XMLSchema-instance" xsi:noNamespaceSchemaLocation="http://sumo.dlr.de/xsd/netconvertConfiguration.xsd">

    <input>
        <node-files value="nodes.nod.xml"/>
        <edge-files value="edges.edg.xml"/>
    </input>

    <output>
        <output-file value="network.net.xml"/>
    </output>

    <tls_building>
        <tls.guess value="true"/>
    </tls_building>

</netconvertConfiguration>
-->

<net version="1.20" junctionCornerDetail="5" limitTurnSpeed="5.50" xmlns:xsi="http://www.w3.org/2001/XMLSchema-instance" xsi:noNamespaceSchemaLocation="http://sumo.dlr.de/xsd/net_file.xsd">

    <location netOffset="200.00,200.00" convBoundary="0.00,0.00,400.00,400.00" origBoundary="-200.00,-200.00,200.00,200.00" projParameter="!"/>

    <edge id=":E_0" function="internal">
        <lane id=":E_0_0" index="0" speed="3.65" length="4.67" shape="400.00,198.40 401.20,199.20 401.60,200.00 401.20,200.80 400.00,201.60"/>
    </edge>
    <edge id=":J1_0" function="internal">
        <lane id=":J1_0_0" index="0" speed="6.51" length="9.03" shape="195.20,210.40 194.85,207.95 193.80,206.20 192.05,205.15 189.60,204.80"/>
    </edge>
    <edge id=":J1_1" function="internal">
        <lane id=":J1_1_0" index="0" speed="13.90" length="20.80" shape="195.20,210.40 195.20,189.60"/>
        <lane id=":J1_1_1" index="1" speed="13.90" length="20.80" shape="198.40,210.40 198.40,189.60"/>
    </edge>
    <edge id=":J1_3" function="internal">
        <lane id=":J1_3_0" index="0" speed="9.26" length="5.01" shape="198.40,210.40 199.11,205.44"/>
    </edge>
    <edge id=":J1_4" function="internal">
        <lane id=":J1_4_0" index="0" speed="3.65" length="1.44" shape="198.40,210.40 199.20,209.20"/>
    </edge>
    <edge id=":J1_20" function="internal">
        <lane id=":J1_20_0" index="0" speed="9.26" length="14.34" shape="199.11,205.44 199.15,205.15 201.40,201.40 205.15,199.15 210.40,198.40"/>
    </edge>
    <edge id=":J1_21" function="internal">
        <lane id=":J1_21_0" index="0" speed="3.65" length="3.23" shape="199.20,209.20 200.00,208.80 200.80,209.20 201.60,210.40"/>
    </edge>
    <edge id=":J1_5" function="internal">
        <lane id=":J1_5_0" index="0" speed="6.51" length="9.03" shape="210.40,204.80 207.95,205.15 206.20,206.20 205.15,207.95 204.80,210.40"/>
    </edge>
    <edge id=":J1_6" function="internal">
        <lane id=":J1_6_0" index="0" speed="13.90" length="20.80" shape="210.40,204.80 189.60,204.80"/>
        <lane id=":J1_6_1" index="1" speed="13.90" length="20.80" shape="210.40,201.60 189.60,201.60"/>
    </edge>
    <edge id=":J1_8" function="internal">
        <lane id=":J1_8_0" index="0" speed="9.26" length="5.01" shape="210.40,201.60 205.44,200.89"/>
    </edge>
    <edge id=":J1_9" function="internal">
        <lane id=":J1_9_0" index="0" speed="3.65" length="1.44" shape="210.40,201.60 209.20,200.80"/>
    </edge>
    <edge id=":J1_22" function="internal">
        <lane id=":J1_22_0" index="0" speed="9.26" length="14.34" shape="205.44,200.89 205.15,200.85 201.40,198.60 199.15,194.85 198.40,189.60"/>
    </edge>
    <edge id=":J1_23" function="internal">
        <lane id=":J1_23_0" index="0" speed="3.65" length="3.23" shape="209.20,200.80 208.80,200.00 209.20,199.20 210.40,198.40"/>
    </edge>
    <edge id=":J1_10" function="internal">
        <lane id=":J1_10_0" index="0" speed="6.51" length="9.03" shape="204.80,189.60 205.15,192.05 206.20,193.80 207.95,194.85 210.40,195.20"/>
    </edge>
    <edge id=":J1_11" function="internal">
        <lane id=":J1_11_0" index="0" speed="13.90" length="20.80" shape="204.80,189.60 204.80,210.40"/>
        <lane id=":J1_11_1" index="1" speed="13.90" length="20.80" shape="201.60,189.60 201.60,210.40"/>
    </edge>
    <edge id=":J1_13" function="internal">
        <lane id=":J1_13_0" index="0" speed="9.26" length="5.01" shape="201.60,189.60 200.89,194.56"/>
    </edge>
    <edge id=":J1_14" function="internal">
        <lane id=":J1_14_0" index="0" speed="3.65" length="1.44" shape="201.60,189.60 200.80,190.80"/>
    </edge>
    <edge id=":J1_24" function="internal">
        <lane id=":J1_24_0" index="0" speed="9.26" length="14.34" shape="200.89,194.56 200.85,194.85 198.60,198.60 194.85,200.85 189.60,201.60"/>
    </edge>
    <edge id=":J1_25" function="internal">
        <lane id=":J1_25_0" index="0" speed="3.65" length="3.23" shape="200.80,190.80 200.00,191.20 199.20,190.80 198.40,189.60"/>
    </edge>
    <edge id=":J1_15" function="internal">
        <lane id=":J1_15_0" index="0" speed="6.51" length="9.03" shape="189.60,195.20 192.05,194.85 193.80,193.80 194.85,192.05 195.20,189.60"/>
    </edge>
    <edge id=":J1_16" function="internal">
        <lane id=":J1_16_0" index="0" speed="13.90" length="20.80" shape="189.60,195.20 210.40,195.20"/>
        <lane id=":J1_16_1" index="1" speed="13.90" length="20.80" shape="189.60,198.40 210.40,198.40"/>
    </edge>
    <edge id=":J1_18" function="internal">
        <lane id=":J1_18_0" index="0" speed="9.26" length="5.01" shape="189.60,198.40 194.56,199.11"/>
    </edge>
    <edge id=":J1_19" function="internal">
        <lane id=":J1_19_0" index="0" speed="3.65" length="1.44" shape="189.60,198.40 190.80,199.20"/>
    </edge>
    <edge id=":J1_26" function="internal">
        <lane id=":J1_26_0" index="0" speed="9.26" length="14.34" shape="194.56,199.11 194.85,199.15 198.60,201.40 200.85,205.15 201.60,210.40"/>
    </edge>
    <edge id=":J1_27" function="internal">
        <lane id=":J1_27_0" index="0" speed="3.65" length="3.23" shape="190.80,199.20 191.20,200.00 190.80,200.80 189.60,201.60"/>
    </edge>
    <edge id=":N_0" function="internal">
        <lane id=":N_0_0" index="0" speed="3.65" length="4.67" shape="201.60,400.00 200.80,401.20 200.00,401.60 199.20,401.20 198.40,400.00"/>
    </edge>
    <edge id=":S_0" function="internal">
        <lane id=":S_0_0" index="0" speed="3.65" length="4.67" shape="198.40,0.00 199.20,-1.20 200.00,-1.60 200.80,-1.20 201.60,0.00"/>
    </edge>
    <edge id=":W_0" function="internal">
        <lane id=":W_0_0" index="0" speed="3.65" length="4.67" shape="0.00,201.60 -1.20,200.80 -1.60,200.00 -1.20,199.20 0.00,198.40"/>
    </edge>

    <edge id="E_J1" from="E" to="J1" priority="-1">
        <lane id="E_J1_0" index="0" speed="13.90" length="189.60" shape="400.00,204.80 210.40,204.80"/>
        <lane id="E_J1_1" index="1" speed="13.90" length="189.60" shape="400.00,201.60 210.40,201.60"/>
    </edge>
    <edge id="J1_E" from="J1" to="E" priority="-1">
        <lane id="J1_E_0" index="0" speed="13.90" length="189.60" shape="210.40,195.20 400.00,195.20"/>
        <lane id="J1_E_1" index="1" speed="13.90" length="189.60" shape="210.40,198.40 400.00,198.40"/>
    </edge>
    <edge id="J1_N" from="J1" to="N" priority="-1">
        <lane id="J1_N_0" index="0" speed="13.90" length="189.60" shape="204.80,210.40 204.80,400.00"/>
        <lane id="J1_N_1" index="1" speed="13.90" length="189.60" shape="201.60,210.40 201.60,400.00"/>
    </edge>
    <edge id="J1_S" from="J1" to="S" priority="-1">
        <lane id="J1_S_0" index="0" speed="13.90" length="189.60" shape="195.20,189.60 195.20,0.00"/>
        <lane id="J1_S_1" index="1" speed="13.90" length="189.60" shape="198.40,189.60 198.40,0.00"/>
    </edge>
    <edge id="J1_W" from="J1" to="W" priority="-1">
        <lane id="J1_W_0" index="0" speed="13.90" length="189.60" shape="189.60,204.80 0.00,204.80"/>
        <lane id="J1_W_1" index="1" speed="13.90" length="189.60" shape="189.60,201.60 0.00,201.60"/>
    </edge>
    <edge id="N_J1" from="N" to="J1" priority="-1">
        <lane id="N_J1_0" index="0" speed="13.90" length="189.60" shape="195.20,400.00 195.20,210.40"/>
        <lane id="N_J1_1" index="1" speed="13.90" length="189.60" shape="198.40,400.00 198.40,210.40"/>
    </edge>
    <edge id="S_J1" from="S" to="J1" priority="-1">
        <lane id="S_J1_0" index="0" speed="13.90" length="189.60" shape="204.80,0.00 204.80,189.60"/>
        <lane id="S_J1_1" index="1" speed="13.90" length="189.60" shape="201.60,0.00 201.60,189.60"/>
    </edge>
    <edge id="W_J1" from="W" to="J1" priority="-1">
        <lane id="W_J1_0" index="0" speed="13.90" length="189.60" shape="0.00,195.20 189.60,195.20"/>
        <lane id="W_J1_1" index="1" speed="13.90" length="189.60" shape="0.00,198.40 189.60,198.40"/>
    </edge>

    <tlLogic id="J1" type="static" programID="0" offset="0">
        <phase duration="42" state="GGGggrrrrrGGGggrrrrr"/>
        <phase duration="3"  state="yyyyyrrrrryyyyyrrrrr"/>
        <phase duration="42" state="rrrrrGGGggrrrrrGGGgg"/>
        <phase duration="3"  state="rrrrryyyyyrrrrryyyyy"/>
    </tlLogic>

    <junction id="E" type="priority" x="400.00" y="200.00" incLanes="J1_E_0 J1_E_1" intLanes=":E_0_0" shape="400.00,200.00 400.00,193.60 400.00,200.00">
        <request index="0" response="0" foes="0" cont="0"/>
    </junction>
    <junction id="J1" type="traffic_light" x="200.00" y="200.00" incLanes="N_J1_0 N_J1_1 E_J1_0 E_J1_1 S_J1_0 S_J1_1 W_J1_0 W_J1_1" intLanes=":J1_0_0 :J1_1_0 :J1_1_1 :J1_20_0 :J1_21_0 :J1_5_0 :J1_6_0 :J1_6_1 :J1_22_0 :J1_23_0 :J1_10_0 :J1_11_0 :J1_11_1 :J1_24_0 :J1_25_0 :J1_15_0 :J1_16_0 :J1_16_1 :J1_26_0 :J1_27_0" shape="193.60,210.40 206.40,210.40 206.84,208.18 207.40,207.40 208.18,206.84 209.18,206.51 210.40,206.40 210.40,193.60 208.18,193.16 207.40,192.60 206.84,191.82 206.51,190.82 206.40,189.60 193.60,189.60 193.16,191.82 192.60,192.60 191.82,193.16 190.82,193.49 189.60,193.60 189.60,206.40 191.82,206.84 192.60,207.40 193.16,208.18 193.49,209.18">
        <request index="0"  response="00000000000000000000" foes="00000000000011000000" cont="0"/>
        <request index="1"  response="01000000000000000000" foes="01111110000111000000" cont="0"/>
        <request index="2"  response="01000000000100000000" foes="01111110000111000000" cont="0"/>
        <request index="3"  response="01000001100100000000" foes="01110001101111000000" cont="1"/>
        <request index="4"  response="01000001100000000000" foes="01000001100000000000" cont="1"/>
        <request index="5"  response="00000001100000000000" foes="00000001100000000000" cont="0"/>
        <request index="6"  response="00000011100000001111" foes="11000011100000001111" cont="0"/>
        <request index="7"  response="00000011100000001111" foes="11000011100000001111" cont="0"/>
        <request index="8"  response="00110011100000001110" foes="00110111100000001110" cont="1"/>
        <request index="9"  response="00110000000000001000" foes="00110000000000001000" cont="1"/>
        <request index="10" response="00000000000000000000" foes="00110000000000000000" cont="0"/>
        <request index="11" response="00000000000100000000" foes="01110000000111111000" cont="0"/>
        <request index="12" response="01000000000100000000" foes="01110000000111111000" cont="0"/>
        <request index="13" response="01000000000100000110" foes="11110000000111000110" cont="1"/>
        <request index="14" response="00000000000100000110" foes="00000000000100000110" cont="1"/>
        <request index="15" response="00000000000000000110" foes="00000000000000000110" cont="0"/>
        <request index="16" response="00000011110000001110" foes="00000011111100001110" cont="0"/>
        <request index="17" response="00000011110000001110" foes="00000011111100001110" cont="0"/>
        <request index="18" response="00000011100011001110" foes="00000011100011011110" cont="1"/>
        <request index="19" response="00000010000011000000" foes="00000010000011000000" cont="1"/>
    </junction>
    <junction id="N" type="priority" x="200.00" y="400.00" incLanes="J1_N_0 J1_N_1" intLanes=":N_0_0" shape="200.00,400.00 206.40,400.00 200.00,400.00">
        <request index="0" response="0" foes="0" cont="0"/>
    </junction>
    <junction id="S" type="priority" x="200.00" y="0.00" incLanes="J1_S_0 J1_S_1" intLanes=":S_0_0" shape="200.00,0.00 193.60,0.00 200.00,0.00">
        <request index="0" response="0" foes="0" cont="0"/>
    </junction>
    <junction id="W" type="priority" x="0.00" y="200.00" incLanes="J1_W_0 J1_W_1" intLanes=":W_0_0" shape="0.00,200.00 0.00,206.40 0.00,200.00">
        <request index="0" response="0" foes="0" cont="0"/>
    </junction>

    <junction id=":J1_20_0" type="internal" x="199.11" y="205.44" incLanes=":J1_3_0 S_J1_0 S_J1_1" intLanes=":J1_6_0 :J1_6_1 :J1_8_0 :J1_9_0 :J1_10_0 :J1_11_0 :J1_11_1 :J1_16_0 :J1_16_1 :J1_18_0"/>
    <junction id=":J1_21_0" type="internal" x="199.20" y="209.20" incLanes=":J1_4_0 E_J1_0 S_J1_0 S_J1_1 W_J1_1" intLanes=":J1_5_0 :J1_11_0 :J1_11_1 :J1_18_0"/>
    <junction id=":J1_22_0" type="internal" x="205.44" y="200.89" incLanes=":J1_8_0 W_J1_0 W_J1_1" intLanes=":J1_1_0 :J1_1_1 :J1_3_0 :J1_11_0 :J1_11_1 :J1_13_0 :J1_14_0 :J1_15_0 :J1_16_0 :J1_16_1"/>
    <junction id=":J1_23_0" type="internal" x="209.20" y="200.80" incLanes=":J1_9_0 N_J1_1 S_J1_0 W_J1_0 W_J1_1" intLanes=":J1_3_0 :J1_10_0 :J1_16_0 :J1_16_1"/>
    <junction id=":J1_24_0" type="internal" x="200.89" y="194.56" incLanes=":J1_13_0 N_J1_0 N_J1_1" intLanes=":J1_0_0 :J1_1_0 :J1_1_1 :J1_6_0 :J1_6_1 :J1_8_0 :J1_16_0 :J1_16_1 :J1_18_0 :J1_19_0"/>
    <junction id=":J1_25_0" type="internal" x="200.80" y="190.80" incLanes=":J1_14_0 E_J1_1 N_J1_0 N_J1_1 W_J1_0" intLanes=":J1_1_0 :J1_1_1 :J1_8_0 :J1_15_0"/>
    <junction id=":J1_26_0" type="internal" x="194.56" y="199.11" incLanes=":J1_18_0 E_J1_0 E_J1_1" intLanes=":J1_1_0 :J1_1_1 :J1_3_0 :J1_4_0 :J1_5_0 :J1_6_0 :J1_6_1 :J1_11_0 :J1_11_1 :J1_13_0"/>
    <junction id=":J1_27_0" type="internal" x="190.80" y="199.20" incLanes=":J1_19_0 E_J1_0 E_J1_1 N_J1_0 S_J1_1" intLanes=":J1_0_0 :J1_6_0 :J1_6_1 :J1_13_0"/>

    <connection from="E_J1" to="J1_N" fromLane="0" toLane="0" via=":J1_5_0" tl="J1" linkIndex="5" dir="r" state="o"/>
    <connection from="E_J1" to="J1_W" fromLane="0" toLane="0" via=":J1_6_0" tl="J1" linkIndex="6" dir="s" state="o"/>
    <connection from="E_J1" to="J1_W" fromLane="1" toLane="1" via=":J1_6_1" tl="J1" linkIndex="7" dir="s" state="o"/>
    <connection from="E_J1" to="J1_S" fromLane="1" toLane="1" via=":J1_8_0" tl="J1" linkIndex="8" dir="l" state="o"/>
    <connection from="E_J1" to="J1_E" fromLane="1" toLane="1" via=":J1_9_0" tl="J1" linkIndex="9" dir="t" state="o"/>
    <connection from="J1_E" to="E_J1" fromLane="1" toLane="1" via=":E_0_0" dir="t" state="M"/>
    <connection from="J1_N" to="N_J1" fromLane="1" toLane="1" via=":N_0_0" dir="t" state="M"/>
    <connection from="J1_S" to="S_J1" fromLane="1" toLane="1" via=":S_0_0" dir="t" state="M"/>
    <connection from="J1_W" to="W_J1" fromLane="1" toLane="1" via=":W_0_0" dir="t" state="M"/>
    <connection from="N_J1" to="J1_W" fromLane="0" toLane="0" via=":J1_0_0" tl="J1" linkIndex="0" dir="r" state="O"/>
    <connection from="N_J1" to="J1_S" fromLane="0" toLane="0" via=":J1_1_0" tl="J1" linkIndex="1" dir="s" state="O"/>
    <connection from="N_J1" to="J1_S" fromLane="1" toLane="1" via=":J1_1_1" tl="J1" linkIndex="2" dir="s" state="O"/>
    <connection from="N_J1" to="J1_E" fromLane="1" toLane="1" via=":J1_3_0" tl="J1" linkIndex="3" dir="l" state="o"/>
    <connection from="N_J1" to="J1_N" fromLane="1" toLane="1" via=":J1_4_0" tl="J1" linkIndex="4" dir="t" state="o"/>
    <connection from="S_J1" to="J1_E" fromLane="0" toLane="0" via=":J1_10_0" tl="J1" linkIndex="10" dir="r" state="O"/>
    <connection from="S_J1" to="J1_N" fromLane="0" toLane="0" via=":J1_11_0" tl="J1" linkIndex="11" dir="s" state="O"/>
    <connection from="S_J1" to="J1_N" fromLane="1" toLane="1" via=":J1_11_1" tl="J1" linkIndex="12" dir="s" state="O"/>
    <connection from="S_J1" to="J1_W" fromLane="1" toLane="1" via=":J1_13_0" tl="J1" linkIndex="13" dir="l" state="o"/>
    <connection from="S_J1" to="J1_S" fromLane="1" toLane="1" via=":J1_14_0" tl="J1" linkIndex="14" dir="t" state="o"/>
    <connection from="W_J1" to="J1_S" fromLane="0" toLane="0" via=":J1_15_0" tl="J1" linkIndex="15" dir="r" state="o"/>
    <connection from="W_J1" to="J1_E" fromLane="0" toLane="0" via=":J1_16_0" tl="J1" linkIndex="16" dir="s" state="o"/>
    <connection from="W_J1" to="J1_E" fromLane="1" toLane="1" via=":J1_16_1" tl="J1" linkIndex="17" dir="s" state="o"/>
    <connection from="W_J1" to="J1_N" fromLane="1" toLane="1" via=":J1_18_0" tl="J1" linkIndex="18" dir="l" state="o"/>
    <connection from="W_J1" to="J1_W" fromLane="1" toLane="1" via=":J1_19_0" tl="J1" linkIndex="19" dir="t" state="o"/>

    <connection from=":E_0" to="E_J1" fromLane="0" toLane="1" dir="t" state="M"/>
    <connection from=":J1_0" to="J1_W" fromLane="0" toLane="0" dir="r" state="M"/>
    <connection from=":J1_1" to="J1_S" fromLane="0" toLane="0" dir="s" state="M"/>
    <connection from=":J1_1" to="J1_S" fromLane="1" toLane="1" dir="s" state="M"/>
    <connection from=":J1_3" to="J1_E" fromLane="0" toLane="1" via=":J1_20_0" dir="l" state="m"/>
    <connection from=":J1_20" to="J1_E" fromLane="0" toLane="1" dir="l" state="M"/>
    <connection from=":J1_4" to="J1_N" fromLane="0" toLane="1" via=":J1_21_0" dir="t" state="m"/>
    <connection from=":J1_21" to="J1_N" fromLane="0" toLane="1" dir="t" state="M"/>
    <connection from=":J1_5" to="J1_N" fromLane="0" toLane="0" dir="r" state="M"/>
    <connection from=":J1_6" to="J1_W" fromLane="0" toLane="0" dir="s" state="M"/>
    <connection from=":J1_6" to="J1_W" fromLane="1" toLane="1" dir="s" state="M"/>
    <connection from=":J1_8" to="J1_S" fromLane="0" toLane="1" via=":J1_22_0" dir="l" state="m"/>
    <connection from=":J1_22" to="J1_S" fromLane="0" toLane="1" dir="l" state="M"/>
    <connection from=":J1_9" to="J1_E" fromLane="0" toLane="1" via=":J1_23_0" dir="t" state="m"/>
    <connection from=":J1_23" to="J1_E" fromLane="0" toLane="1" dir="t" state="M"/>
    <connection from=":J1_10" to="J1_E" fromLane="0" toLane="0" dir="r" state="M"/>
    <connection from=":J1_11" to="J1_N" fromLane="0" toLane="0" dir="s" state="M"/>
    <connection from=":J1_11" to="J1_N" fromLane="1" toLane="1" dir="s" state="M"/>
    <connection from=":J1_13" to="J1_W" fromLane="0" toLane="1" via=":J1_24_0" dir="l" state="m"/>
    <connection from=":J1_24" to="J1_W" fromLane="0" toLane="1" dir="l" state="M"/>
    <connection from=":J1_14" to="J1_S" fromLane="0" toLane="1" via=":J1_25_0" dir="t" state="m"/>
    <connection from=":J1_25" to="J1_S" fromLane="0" toLane="1" dir="t" state="M"/>
    <connection from=":J1_15" to="J1_S" fromLane="0" toLane="0" dir="r" state="M"/>
    <connection from=":J1_16" to="J1_E" fromLane="0" toLane="0" dir="s" state="M"/>
    <connection from=":J1_16" to="J1_E" fromLane="1" toLane="1" dir="s" state="M"/>
    <connection from=":J1_18" to="J1_N" fromLane="0" toLane="1" via=":J1_26_0" dir="l" state="m"/>
    <connection from=":J1_26" to="J1_N" fromLane="0" toLane="1" dir="l" state="M"/>
    <connection from=":J1_19" to="J1_W" fromLane="0" toLane="1" via=":J1_27_0" dir="t" state="m"/>
    <connection from=":J1_27" to="J1_W" fromLane="0" toLane="1" dir="t" state="M"/>
    <connection from=":N_0" to="N_J1" fromLane="0" toLane="1" dir="t" state="M"/>
    <connection from=":S_0" to="S_J1" fromLane="0" toLane="1" dir="t" state="M"/>
    <connection from=":W_0" to="W_J1" fromLane="0" toLane="1" dir="t" state="M"/>

</net>
